#======================================================================

# CRYSTAL DATA

#----------------------------------------------------------------------

data_VESTA_phase_1


_chemical_name_common                  ''
_cell_length_a                         4.04000
_cell_length_b                         4.04000
_cell_length_c                         5.80000
_cell_angle_alpha                      90
_cell_angle_beta                       90
_cell_angle_gamma                      90
_space_group_name_H-M_alt              'I -4 m 2'
_space_group_IT_number                 119

loop_
_space_group_symop_operation_xyz
   'x, y, z'
   '-x, -y, z'
   'y, -x, -z'
   '-y, x, -z'
   'x, -y, z'
   '-x, y, z'
   'y, x, -z'
   '-y, -x, -z'
   'x+1/2, y+1/2, z+1/2'
   '-x+1/2, -y+1/2, z+1/2'
   'y+1/2, -x+1/2, -z+1/2'
   '-y+1/2, x+1/2, -z+1/2'
   'x+1/2, -y+1/2, z+1/2'
   '-x+1/2, y+1/2, z+1/2'
   'y+1/2, x+1/2, -z+1/2'
   '-y+1/2, -x+1/2, -z+1/2'

loop_
   _atom_site_label
   _atom_site_occupancy
   _atom_site_fract_x
   _atom_site_fract_y
   _atom_site_fract_z
   _atom_site_adp_type
   _atom_site_B_iso_or_equiv
   _atom_site_type_symbol
   Al1        1.0     0.000000      0.000000      0.000000     Biso  1.000000 Al
   Al2        1.0     0.000000      0.000000      0.500000     Biso  1.000000 Al
   Cu         1.0     0.000000      0.500000      0.250000     Biso  1.000000 Cu
